%nproc=8
%mem=1Gb
# m06/6-31G  opt  freq=noraman

titulo

0 1
 C    0.2217   1.3142  -0.1397
 O   -1.1304   1.7073   0.0404
 C    0.3769  -0.0907   0.3857
 C   -0.3384  -1.1946  -0.3567
 C   -1.7888  -1.3649   0.1118
 H   -1.2435   2.6078  -0.2645
 H    0.4939   1.3326  -1.2056
 H    0.9023   1.9902   0.3952
 H    1.6327  -0.3134   0.2286
 H    0.2767  -0.1562   1.4738
 H   -0.3121  -0.9815  -1.4321
 H    0.1993  -2.1384  -0.2087
 H   -2.2742  -2.1800  -0.4318
 H   -1.8215  -1.6057   1.1787
 H   -2.3588  -0.4473  -0.0433

